
  Mrv1712 03151712072D          

 63 76  0  0  0  0            999 V2000
    8.0038   -4.5962    0.0000 O   0  0  0  0  0  0  0  0  0  0  0  0
    7.7570   -3.9833    0.0000 C   0  0  0  0  0  0  0  0  0  0  0  0
    6.9411   -3.8678    0.0000 N   0  0  0  0  0  0  0  0  0  0  0  0
    6.4349   -4.5210    0.0000 C   0  0  0  0  0  0  0  0  0  0  0  0
    5.7802   -4.4320    0.0000 C   0  0  0  0  0  0  0  0  0  0  0  0
    6.6233   -3.1023    0.0000 C   0  0  0  0  0  0  0  0  0  0  0  0
    5.9691   -3.0097    0.0000 O   0  0  0  0  0  0  0  0  0  0  0  0
    8.2649   -3.3346    0.0000 C   0  0  0  0  0  0  0  0  0  0  0  0
    9.0807   -3.4501    0.0000 C   0  0  0  0  0  0  0  0  0  0  0  0
    9.5985   -2.8029    0.0000 C   0  0  0  0  0  0  0  0  0  0  0  0
    9.2785   -2.0372    0.0000 C   0  0  0  0  0  0  0  0  0  0  0  0
    9.8314   -1.4231    0.0000 N   0  0  0  0  0  0  0  0  0  0  0  0
    9.6597   -0.6153    0.0000 N   0  0  0  0  0  0  0  0  0  0  0  0
   10.3742   -0.2033    0.0000 N   0  0  0  0  0  0  0  0  0  0  0  0
   10.9880   -0.7560    0.0000 C   0  0  0  0  0  0  0  0  0  0  0  0
   11.7032   -0.3430    0.0000 C   0  0  0  0  0  0  0  0  0  0  0  0
   11.5315    0.4648    0.0000 N   0  0  0  0  0  0  0  0  0  0  0  0
   12.2227    0.4785    0.0000 C   0  0  0  0  0  0  0  0  0  0  0  0
   12.0484    1.2858    0.0000 C   0  0  0  0  0  0  0  0  0  0  0  0
   11.4062    0.9973    0.0000 N   0  0  0  0  0  0  0  0  0  0  0  0
   11.7053    1.4595    0.0000 H   0  0  0  0  0  0  0  0  0  0  0  0
   11.4062    1.8232    0.0000 C   0  0  0  0  0  0  0  0  0  0  0  0
   10.6910    2.2361    0.0000 C   0  0  0  0  0  0  0  0  0  0  0  0
    9.9757    1.8231    0.0000 C   0  0  0  0  0  0  0  0  0  0  0  0
    9.9757    0.9972    0.0000 N   0  0  0  0  0  0  0  0  0  0  0  0
   10.0240    1.7475    0.0000 C   0  0  0  0  0  0  0  0  0  0  0  0
   10.8389    1.8817    0.0000 C   0  0  0  0  0  0  0  0  0  0  0  0
   11.4185    2.4688    0.0000 C   0  0  0  0  0  0  0  0  0  0  0  0
   12.1567    2.0983    0.0000 N   0  0  0  0  0  0  0  0  0  0  0  0
   12.8906    2.4780    0.0000 C   0  0  0  0  0  0  0  0  0  0  0  0
   13.5483    1.9799    0.0000 C   0  0  0  0  0  0  0  0  0  0  0  0
   14.3145    2.2961    0.0000 C   0  0  0  0  0  0  0  0  0  0  0  0
   14.4063    3.1199    0.0000 C   0  0  0  0  0  0  0  0  0  0  0  0
   15.1725    3.4362    0.0000 C   0  0  0  0  0  0  0  0  0  0  0  0
   15.2643    4.2600    0.0000 N   0  0  0  0  0  0  0  0  0  0  0  0
   16.0219    4.5901    0.0000 C   0  0  0  0  0  0  0  0  0  0  0  0
   16.0966    5.2466    0.0000 C   0  0  0  0  0  0  0  0  0  0  0  0
   15.7004    3.0388    0.0000 O   0  0  0  0  0  0  0  0  0  0  0  0
   13.7480    3.6154    0.0000 C   0  0  0  0  0  0  0  0  0  0  0  0
   12.9898    3.2931    0.0000 C   0  0  0  0  0  0  0  0  0  0  0  0
   12.3315    3.7886    0.0000 C   0  0  0  0  0  0  0  0  0  0  0  0
   12.4233    4.6124    0.0000 C   0  0  0  0  0  0  0  0  0  0  0  0
   13.1895    4.9286    0.0000 C   0  0  0  0  0  0  0  0  0  0  0  0
   13.8478    4.4331    0.0000 C   0  0  0  0  0  0  0  0  0  0  0  0
   14.6060    4.7554    0.0000 C   0  0  0  0  0  0  0  0  0  0  0  0
   14.6862    5.4113    0.0000 O   0  0  0  0  0  0  0  0  0  0  0  0
   12.0325    1.2818    0.0000 N   0  0  0  0  0  0  0  0  0  0  0  0
   11.2183    1.1480    0.0000 N   0  0  0  0  0  0  0  0  0  0  0  0
   10.6910    0.5843    0.0000 Cu  0  0  0  0  0  0  0  0  0  0  0  0
    9.3719    0.4502    0.0000 C   0  0  0  0  0  0  0  0  0  0  0  0
    9.7079   -0.3043    0.0000 C   0  0  0  0  0  0  0  0  0  0  0  0
   10.5293   -0.2178    0.0000 N   0  0  0  0  0  0  0  0  0  0  0  0
   10.2631   -0.6997    0.0000 H   0  0  0  0  0  0  0  0  0  0  0  0
   10.8753   -0.9221    0.0000 C   0  0  0  0  0  0  0  0  0  0  0  0
   11.6986   -0.8561    0.0000 C   0  0  0  0  0  0  0  0  0  0  0  0
   12.0530   -0.1102    0.0000 C   0  0  0  0  0  0  0  0  0  0  0  0
   10.6527   -1.5095    0.0000 C   0  0  0  0  0  0  0  0  0  0  0  0
    8.4649   -1.9219    0.0000 C   0  0  0  0  0  0  0  0  0  0  0  0
    8.1570   -1.1578    0.0000 C   0  0  0  0  0  0  0  0  0  0  0  0
    7.3412   -1.0423    0.0000 C   0  0  0  0  0  0  0  0  0  0  0  0
    6.8233   -1.6895    0.0000 C   0  0  0  0  0  0  0  0  0  0  0  0
    7.1411   -2.4551    0.0000 C   0  0  0  0  0  0  0  0  0  0  0  0
    7.9569   -2.5705    0.0000 C   0  0  0  0  0  0  0  0  0  0  0  0
  1  2  2  0  0  0  0
  2  3  1  0  0  0  0
  3  4  1  0  0  0  0
  4  5  1  0  0  0  0
  3  6  1  0  0  0  0
  6  7  2  0  0  0  0
  2  8  1  0  0  0  0
  8  9  2  3  0  0  0
  9 10  1  0  0  0  0
 10 11  2  3  0  0  0
 11 12  1  0  0  0  0
 12 13  1  0  0  0  0
 13 14  2  3  0  0  0
 14 15  1  0  0  0  0
 15 16  1  0  0  0  0
 16 17  1  0  0  0  0
 17 18  1  0  0  0  0
 18 19  1  0  0  0  0
 19 20  1  0  0  0  0
 20 21  1  0  0  0  0
 20 22  1  0  0  0  0
 22 23  1  0  0  0  0
 23 24  1  0  0  0  0
 24 25  1  0  0  0  0
 25 26  1  0  0  0  0
 26 27  1  0  0  0  0
 27 28  2  3  0  0  0
 28 29  1  0  0  0  0
 29 30  1  0  0  0  0
 30 31  2  3  0  0  0
 31 32  1  0  0  0  0
 32 33  2  3  0  0  0
 33 34  1  0  0  0  0
 34 35  1  0  0  0  0
 35 36  1  0  0  0  0
 36 37  1  0  0  0  0
 34 38  2  0  0  0  0
 33 39  1  0  0  0  0
 39 40  1  0  0  0  0
 40 30  1  0  0  0  0
 40 41  2  3  0  0  0
 41 42  1  0  0  0  0
 42 43  2  3  0  0  0
 39 44  2  3  0  0  0
 44 43  1  0  0  0  0
 44 45  1  0  0  0  0
 45 35  1  0  0  0  0
 45 46  2  0  0  0  0
 29 47  1  0  0  0  0
 47 48  2  3  0  0  0
 48 27  1  0  0  0  0
 48 49  1  0  0  0  0
 49 20  1  0  0  0  0
 49 17  1  0  0  0  0
 49 25  1  0  0  0  0
 49 14  1  0  0  0  0
 25 50  1  0  0  0  0
 50 51  1  0  0  0  0
 51 52  1  0  0  0  0
 52 49  1  0  0  0  0
 52 53  1  0  0  0  0
 52 54  1  0  0  0  0
 54 55  1  0  0  0  0
 55 56  1  0  0  0  0
 56 17  1  0  0  0  0
 15 57  2  3  0  0  0
 57 12  1  0  0  0  0
 11 58  1  0  0  0  0
 58 59  2  3  0  0  0
 59 60  1  0  0  0  0
 60 61  2  3  0  0  0
 61 62  1  0  0  0  0
 62  6  1  0  0  0  0
 62 63  2  3  0  0  0
 63  8  1  0  0  0  0
 63 58  1  0  0  0  0
M  END