
  Mrv0541 05221309592D          

  9  8  0  0  0  0            999 V2000
   -1.0607    0.1768    0.0000 V   0  0  0  0  0  0  0  0  0  0  0  0
   -1.0607    1.0018    0.0000 O   0  0  0  0  0  0  0  0  0  0  0  0
   -1.0607   -0.6482    0.0000 O   0  0  0  0  0  0  0  0  0  0  0  0
   -1.8857    0.1768    0.0000 O   0  0  0  0  0  0  0  0  0  0  0  0
   -0.2357    1.0018    0.0000 V   0  0  0  0  0  0  0  0  0  0  0  0
   -0.2357    1.8268    0.0000 O   0  0  0  0  0  0  0  0  0  0  0  0
    0.5893    1.0018    0.0000 O   0  0  0  0  0  0  0  0  0  0  0  0
   -0.2357    0.1768    0.0000 O   0  0  0  0  0  0  0  0  0  0  0  0
   -0.3462   -0.2357    0.0000 O   0  0  0  0  0  0  0  0  0  0  0  0
  1  2  1  0  0  0  0
  1  3  1  0  0  0  0
  1  4  2  0  0  0  0
  2  5  1  0  0  0  0
  5  6  2  0  0  0  0
  5  7  1  0  0  0  0
  5  8  1  0  0  0  0
  1  9  1  0  0  0  0
M  END
