
  SciTegic09241516132D

  3  2  0  0  0  0            999 V2000
    0.0000    0.0000    0.0000 Cl  0  0
    0.0000    0.0000    0.0000 C   0  0
    0.0000    0.0000    0.0000 Cl  0  0
  1  2  1  0
  2  3  1  0
M  END
> <CANONICAL_SMILES>
ClCCl

> <SOLVENT_NAME>
DICHLOROMETHANE

$$$$

  SciTegic09241516132D

  4  3  0  0  0  0            999 V2000
    0.0000    0.0000    0.0000 Cl  0  0
    0.0000    0.0000    0.0000 C   0  0
    0.0000    0.0000    0.0000 Cl  0  0
    0.0000    0.0000    0.0000 Cl  0  0
  1  2  1  0
  2  3  1  0
  2  4  1  0
M  END
> <CANONICAL_SMILES>
ClC(Cl)Cl

> <SOLVENT_NAME>
TRICHLOROMETHANE

$$$$

  SciTegic09241516132D

  6  5  0  0  0  0            999 V2000
    0.0000    0.0000    0.0000 C   0  0
    0.0000    0.0000    0.0000 C   0  0
    0.0000    0.0000    0.0000 O   0  0
    0.0000    0.0000    0.0000 C   0  0
    0.0000    0.0000    0.0000 C   0  0
    0.0000    0.0000    0.0000 O   0  0
  1  2  1  0
  2  3  1  0
  3  4  1  0
  4  5  1  0
  4  6  2  0
M  END
> <CANONICAL_SMILES>
CCOC(C)=O

> <SOLVENT_NAME>
ETHYL ACETATE

$$$$

  SciTegic09241516132D

  2  1  0  0  0  0            999 V2000
    0.0000    0.0000    0.0000 C   0  0
    0.0000    0.0000    0.0000 O   0  0
  1  2  1  0
M  END
> <CANONICAL_SMILES>
CO

> <SOLVENT_NAME>
METHANOL

$$$$

  SciTegic09241516132D

  4  3  0  0  0  0            999 V2000
    0.0000    0.0000    0.0000 C   0  0
    0.0000    0.0000    0.0000 C   0  0
    0.0000    0.0000    0.0000 C   0  0
    0.0000    0.0000    0.0000 O   0  0
  1  2  1  0
  2  3  1  0
  2  4  1  0
M  END
> <CANONICAL_SMILES>
CC(C)O

> <SOLVENT_NAME>
PROPAN-2-OL

$$$$

  SciTegic09241516132D

  5  4  0  0  0  0            999 V2000
    0.0000    0.0000    0.0000 O   0  0
    0.0000    0.0000    0.0000 S   0  0
    0.0000    0.0000    0.0000 F   0  0
    0.0000    0.0000    0.0000 O   0  0
    0.0000    0.0000    0.0000 O   0  0
  1  2  1  0
  2  3  1  0
  2  4  2  0
  2  5  2  0
M  END
> <CANONICAL_SMILES>
OS(F)(=O)=O

> <SOLVENT_NAME>
SULFUROFURIDIC ACID

$$$$

  SciTegic09241516132D

  8  7  0  0  0  0            999 V2000
    0.0000    0.0000    0.0000 C   0  0
    0.0000    0.0000    0.0000 C   0  0
    0.0000    0.0000    0.0000 O   0  0
    0.0000    0.0000    0.0000 O   0  0
    0.0000    0.0000    0.0000 S   0  0
    0.0000    0.0000    0.0000 O   0  0
    0.0000    0.0000    0.0000 O   0  0
    0.0000    0.0000    0.0000 O   0  0
  1  2  1  0
  2  3  2  0
  2  4  1  0
  4  5  1  0
  5  6  1  0
  5  7  2  0
  5  8  2  0
M  END
> <CANONICAL_SMILES>
CC(=O)OS(O)(=O)=O

> <SOLVENT_NAME>
ACETYLSULFATE

$$$$
