
  SciTegic03131709292D

 63 76  0  0  0  0            999 V2000
  -22.1384  -12.4100    0.0000 O   0  0
  -21.5808  -11.0175    0.0000 C   0  0
  -22.5079   -9.8383    0.0000 N   0  0
  -23.9926  -10.0516    0.0000 C   0  0
  -24.9198   -8.8725    0.0000 C   0  0
  -21.9503   -8.4458    0.0000 C   0  0
  -22.8774   -7.2666    0.0000 O   0  0
  -20.0960  -10.8041    0.0000 C   0  0
  -19.1689  -11.9833    0.0000 C   0  0
  -17.6841  -11.7699    0.0000 C   0  0
  -17.1265  -10.3774    0.0000 C   0  0
  -15.6418  -10.1641    0.0000 N   0  0
  -14.9416   -8.8375    0.0000 N   0  0
  -13.4636   -9.0934    0.0000 N   0  0
  -13.2503  -10.5781    0.0000 C   0  0
  -11.7723  -10.8341    0.0000 C   0  0
  -11.0722   -9.5075    0.0000 N   0  0
   -9.6858   -9.4801    0.0000 C   0  0
   -9.6643   -7.9802    0.0000 C   0  0
  -11.0417   -7.3864    0.0000 N   0  0
   -9.6230   -6.8993    0.0000 H   0  0
  -10.2341   -5.9163    0.0000 C   0  0
  -11.5607   -5.2162    0.0000 C   0  0
  -12.9069   -5.8779    0.0000 C   0  0
  -13.1628   -7.3559    0.0000 N   0  0
  -12.4627   -6.0293    0.0000 C   0  0
  -10.9847   -6.2852    0.0000 C   0  0
   -9.6385   -5.6235    0.0000 C   0  0
   -8.5932   -6.6993    0.0000 N   0  0
   -7.1085   -6.4859    0.0000 C   0  0
   -6.1813   -7.6651    0.0000 C   0  0
   -4.6966   -7.4517    0.0000 C   0  0
   -4.1389   -6.0592    0.0000 C   0  0
   -2.6542   -5.8459    0.0000 C   0  0
   -2.0966   -4.4534    0.0000 N   0  0
   -0.6118   -4.2400    0.0000 C   0  0
   -0.0542   -2.8475    0.0000 C   0  0
   -1.7271   -7.0250    0.0000 O   0  0
   -5.0661   -4.8801    0.0000 C   0  0
   -6.5508   -5.0934    0.0000 C   0  0
   -7.4780   -3.9143    0.0000 C   0  0
   -6.9204   -2.5217    0.0000 C   0  0
   -5.4356   -2.3084    0.0000 C   0  0
   -4.5085   -3.4876    0.0000 C   0  0
   -3.0237   -3.2742    0.0000 C   0  0
   -2.4661   -1.8817    0.0000 O   0  0
   -9.2933   -8.0259    0.0000 N   0  0
  -10.7713   -7.7700    0.0000 N   0  0
  -12.1175   -8.4317    0.0000 Zn  0  0
  -14.5492   -7.3833    0.0000 C   0  0
  -14.5707   -8.8831    0.0000 C   0  0
  -13.1933   -9.4770    0.0000 N   0  0
  -14.6120   -9.9641    0.0000 H   0  0
  -14.0008  -10.9471    0.0000 C   0  0
  -12.6742  -11.6472    0.0000 C   0  0
  -11.3281  -10.9855    0.0000 C   0  0
  -14.5964  -11.2399    0.0000 C   0  0
  -18.0536   -9.1983    0.0000 C   0  0
  -17.4960   -7.8058    0.0000 C   0  0
  -18.4232   -6.6266    0.0000 C   0  0
  -19.9079   -6.8399    0.0000 C   0  0
  -20.4655   -8.2325    0.0000 C   0  0
  -19.5384   -9.4116    0.0000 C   0  0
  1  2  2  0
  2  3  1  0
  3  4  1  0
  4  5  1  0
  3  6  1  0
  6  7  2  0
  2  8  1  0
  8  9  2  3
  9 10  1  0
 10 11  2  3
 11 12  1  0
 12 13  1  0
 13 14  2  3
 14 15  1  0
 15 16  1  0
 16 17  1  0
 17 18  1  0
 18 19  1  0
 19 20  1  0
 20 21  1  0
 20 22  1  0
 22 23  1  0
 23 24  1  0
 24 25  1  0
 25 26  1  0
 26 27  1  0
 27 28  2  3
 28 29  1  0
 29 30  1  0
 30 31  2  3
 31 32  1  0
 32 33  2  3
 33 34  1  0
 34 35  1  0
 35 36  1  0
 36 37  1  0
 34 38  2  0
 33 39  1  0
 39 40  1  0
 40 30  1  0
 40 41  2  3
 41 42  1  0
 42 43  2  3
 39 44  2  3
 44 43  1  0
 44 45  1  0
 45 35  1  0
 45 46  2  0
 29 47  1  0
 47 48  2  3
 48 27  1  0
 48 49  1  0
 49 20  1  0
 49 17  1  0
 49 25  1  0
 49 14  1  0
 25 50  1  0
 50 51  1  0
 51 52  1  0
 52 49  1  0
 52 53  1  0
 52 54  1  0
 54 55  1  0
 55 56  1  0
 56 17  1  0
 15 57  2  3
 57 12  1  0
 11 58  1  0
 58 59  2  3
 59 60  1  0
 60 61  2  3
 61 62  1  0
 62  6  1  0
 62 63  2  3
 63  8  1  0
 63 58  1  0
M  END