
  SciTegic03101709222D

 74 84  0  0  0  0            999 V2000
    0.2606    0.1503    0.0000 O   0  0
    1.3000    0.7500    0.0000 Cl  0  0
    2.3394    0.1503    0.0000 O   0  0
    1.3000    1.9500    0.0000 O   0  5
    1.3000   -0.4500    0.0000 O   0  0
    5.3605    0.1503    0.0000 O   0  0
    6.4000    0.7500    0.0000 Cl  0  0
    7.4394    0.1503    0.0000 O   0  0
    6.4000    1.9500    0.0000 O   0  5
    6.4000   -0.4500    0.0000 O   0  0
   14.5367   -8.3476    0.0000 O   0  0
   14.0883   -7.2345    0.0000 C   0  0
   12.6066   -7.0247    0.0000 N   0  0
   11.6871   -8.2111    0.0000 C   0  0
   10.4980   -8.0494    0.0000 C   0  0
   12.0293   -5.6344    0.0000 C   0  0
   10.8412   -5.4662    0.0000 O   0  0
   15.0108   -6.0564    0.0000 C   0  0
   16.4925   -6.2662    0.0000 C   0  0
   17.4330   -5.0907    0.0000 C   0  0
   16.8517   -3.7000    0.0000 C   0  0
   17.8559   -2.5847    0.0000 N   0  0
   17.5440   -1.1175    0.0000 N   0  0
   18.8418   -0.3693    0.0000 N   0  0
   19.9565   -1.3730    0.0000 C   0  0
   21.2555   -0.6230    0.0000 C   0  0
   20.9437    0.8442    0.0000 N   0  0
   22.1990    0.8690    0.0000 C   0  0
   21.8824    2.3352    0.0000 C   0  0
   20.7161    1.8113    0.0000 N   0  0
   21.2594    2.6508    0.0000 H   0  0
   20.7161    3.3113    0.0000 C   0  0
   19.4171    4.0612    0.0000 C   0  0
   18.1180    3.3112    0.0000 C   0  0
   18.1180    1.8112    0.0000 N   0  0
   18.2057    3.1738    0.0000 C   0  0
   19.6857    3.4175    0.0000 C   0  0
   20.7385    4.4838    0.0000 C   0  0
   22.0791    3.8110    0.0000 N   0  0
   23.4121    4.5005    0.0000 C   0  0
   24.6066    3.5959    0.0000 C   0  0
   25.9982    4.1702    0.0000 C   0  0
   26.1649    5.6664    0.0000 C   0  0
   27.5565    6.2408    0.0000 C   0  0
   27.7233    7.7370    0.0000 N   0  0
   29.0992    8.3366    0.0000 C   0  0
   29.2348    9.5290    0.0000 C   0  0
   28.5153    5.5192    0.0000 O   0  0
   24.9693    6.5663    0.0000 C   0  0
   23.5923    5.9810    0.0000 C   0  0
   22.3966    6.8809    0.0000 C   0  0
   22.5634    8.3771    0.0000 C   0  0
   23.9549    8.9514    0.0000 C   0  0
   25.1506    8.0515    0.0000 C   0  0
   26.5276    8.6369    0.0000 C   0  0
   26.6732    9.8280    0.0000 O   0  0
   21.8535    2.3281    0.0000 N   0  0
   20.3748    2.0851    0.0000 N   0  0
   19.4171    1.0612    0.0000 Zn  0  0
   17.0131    0.8170    0.0000 C   0  0
   17.6235   -0.5532    0.0000 C   0  0
   19.1153   -0.3960    0.0000 N   0  0
   18.6321   -1.2716    0.0000 H   0  0
   19.7445   -1.6748    0.0000 C   0  0
   21.2400   -1.5581    0.0000 C   0  0
   21.8867   -0.2047    0.0000 C   0  0
   19.3476   -2.7415    0.0000 C   0  0
   15.3740   -3.4906    0.0000 C   0  0
   14.8148   -2.1028    0.0000 C   0  0
   13.3331   -1.8930    0.0000 C   0  0
   12.3925   -3.0685    0.0000 C   0  0
   12.9698   -4.4589    0.0000 C   0  0
   14.4515   -4.6686    0.0000 C   0  0
   31.7688    0.7500    0.0000 O   0  0
  1  2  2  0
  2  3  2  0
  2  4  1  0
  2  5  2  0
  6  7  2  0
  7  8  2  0
  7  9  1  0
  7 10  2  0
 11 12  2  0
 12 13  1  0
 13 14  1  0
 14 15  1  0
 13 16  1  0
 16 17  2  0
 12 18  1  0
 18 19  2  3
 19 20  1  0
 20 21  2  3
 21 22  1  0
 22 23  1  0
 23 24  2  3
 24 25  1  0
 25 26  1  0
 26 27  1  0
 27 28  1  0
 28 29  1  0
 29 30  1  0
 30 31  1  0
 30 32  1  0
 32 33  1  0
 33 34  1  0
 34 35  1  0
 35 36  1  0
 36 37  1  0
 37 38  2  3
 38 39  1  0
 39 40  1  0
 40 41  2  3
 41 42  1  0
 42 43  2  3
 43 44  1  0
 44 45  1  0
 45 46  1  0
 46 47  1  0
 44 48  2  0
 43 49  1  0
 49 50  1  0
 50 40  1  0
 50 51  2  3
 51 52  1  0
 52 53  2  3
 49 54  2  3
 54 53  1  0
 54 55  1  0
 55 45  1  0
 55 56  2  0
 39 57  1  0
 57 58  2  3
 58 37  1  0
 58 59  1  0
 59 30  1  0
 59 27  1  0
 59 35  1  0
 59 24  1  0
 35 60  1  0
 60 61  1  0
 61 62  1  0
 62 59  1  0
 62 63  1  0
 62 64  1  0
 64 65  1  0
 65 66  1  0
 66 27  1  0
 25 67  2  3
 67 22  1  0
 21 68  1  0
 68 69  2  3
 69 70  1  0
 70 71  2  3
 71 72  1  0
 72 16  1  0
 72 73  2  3
 73 18  1  0
 73 68  1  0
M  CHG  2   4  -1   9  -1
M  END