
  Mrv0541 06071311262D          

 35 33  0  0  0  0            999 V2000
    5.1718   -6.6805    0.0000 C   0  0  0  0  0  0  0  0  0  0  0  0
    4.4536   -7.0853    0.0000 C   0  0  0  0  0  0  0  0  0  0  0  0
    5.8852   -7.0853    0.0000 C   0  0  0  0  0  0  0  0  0  0  0  0
    4.7574   -5.9671    0.0000 C   0  0  0  0  0  0  0  0  0  0  0  0
    6.5937   -6.6805    0.0000 C   0  0  0  0  0  0  0  0  0  0  0  0
    4.4681   -7.8951    0.0000 C   0  0  0  0  0  0  0  0  0  0  0  0
    5.1574   -5.2490    0.0000 O   0  0  0  0  0  0  0  0  0  0  0  0
    5.2007   -8.2855    0.0000 O   0  0  0  0  0  0  0  0  0  0  0  0
    6.5937   -5.8562    0.0000 O   0  0  0  0  0  0  0  0  0  0  0  0
    5.5767   -5.9671    0.0000 O   0  0  0  0  0  0  0  0  0  0  0  0
    3.9331   -5.9719    0.0000 O   0  5  0  0  0  0  0  0  0  0  0  0
    3.7741   -8.3289    0.0000 O   0  5  0  0  0  0  0  0  0  0  0  0
    7.3118   -7.0853    0.0000 O   0  5  0  0  0  0  0  0  0  0  0  0
    7.1576   -8.3289    0.0000 Bi  0  1  0  0  0  0  0  0  0  0  0  0
    2.0389   -7.2010    0.0000 N   0  3  0  0  0  0  0  0  0  0  0  0
    1.3592   -6.7817    0.0000 C   0  0  0  0  0  0  0  0  0  0  0  0
    1.3592   -6.0153    0.0000 C   0  0  0  0  0  0  0  0  0  0  0  0
   -4.2946   -6.0393    0.0000 C   0  0  0  0  0  0  0  0  0  0  0  0
   -3.6295   -5.5960    0.0000 O   0  0  0  0  0  0  0  0  0  0  0  0
   -2.9305   -6.0393    0.0000 C   0  0  0  0  0  0  0  0  0  0  0  0
   -4.0343   -6.8540    0.0000 C   0  0  0  0  0  0  0  0  0  0  0  0
   -3.1907   -6.8540    0.0000 C   0  0  0  0  0  0  0  0  0  0  0  0
    2.7474   -6.8202    0.0000 O   0  5  0  0  0  0  0  0  0  0  0  0
    2.0582   -7.9819    0.0000 O   0  0  0  0  0  0  0  0  0  0  0  0
   -5.0176   -5.5960    0.0000 C   0  0  0  0  0  0  0  0  0  0  0  0
    2.0727   -5.5960    0.0000 N   0  0  0  0  0  0  0  0  0  0  0  0
    0.6121   -5.5960    0.0000 N   0  0  0  0  0  0  0  0  0  0  0  0
   -5.7261   -6.0393    0.0000 N   0  0  0  0  0  0  0  0  0  0  0  0
   -1.5038   -6.0153    0.0000 S   0  0  0  0  0  0  0  0  0  0  0  0
   -2.2220   -5.5960    0.0000 C   0  0  0  0  0  0  0  0  0  0  0  0
   -0.0819   -6.0153    0.0000 C   0  0  0  0  0  0  0  0  0  0  0  0
   -0.8098   -5.5960    0.0000 C   0  0  0  0  0  0  0  0  0  0  0  0
   -5.7261   -6.8540    0.0000 C   0  0  0  0  0  0  0  0  0  0  0  0
   -6.4443   -5.5960    0.0000 C   0  0  0  0  0  0  0  0  0  0  0  0
    2.7667   -6.0153    0.0000 C   0  0  0  0  0  0  0  0  0  0  0  0
  6  2  1  0  0  0  0
  7  4  2  0  0  0  0
  8  6  2  0  0  0  0
  9  5  2  0  0  0  0
 10  1  1  0  0  0  0
 11  4  1  0  0  0  0
 12  6  1  0  0  0  0
 13  5  1  0  0  0  0
  2  1  1  0  0  0  0
  3  1  1  0  0  0  0
  4  1  1  0  0  0  0
  5  3  1  0  0  0  0
 16 15  1  0  0  0  0
 17 16  2  3  0  0  0
 18 19  1  0  0  0  0
 19 20  1  0  0  0  0
 20 30  1  0  0  0  0
 21 22  1  0  0  0  0
 22 20  2  0  0  0  0
 23 15  1  0  0  0  0
 24 15  2  0  0  0  0
 25 18  1  0  0  0  0
 26 17  1  0  0  0  0
 27 17  1  0  0  0  0
 28 25  1  0  0  0  0
 29 32  1  0  0  0  0
 30 29  1  0  0  0  0
 31 27  1  0  0  0  0
 32 31  1  0  0  0  0
 33 28  1  0  0  0  0
 34 28  1  0  0  0  0
 35 26  1  0  0  0  0
 21 18  2  0  0  0  0
M  CHG  6  11  -1  12  -1  13  -1  14   3  15   1  23  -1
M  END
