
  Mrv0541 05221309592D          

  4  3  0  0  0  0            999 V2000
   -1.0607    0.1768    0.0000 V   0  0  0  0  0  0  0  0  0  0  0  0
   -1.0607    1.0018    0.0000 O   0  0  0  0  0  0  0  0  0  0  0  0
   -1.0607   -0.6482    0.0000 O   0  0  0  0  0  0  0  0  0  0  0  0
   -1.8857    0.1768    0.0000 O   0  0  0  0  0  0  0  0  0  0  0  0
  1  2  2  0  0  0  0
  1  3  2  0  0  0  0
  1  4  2  0  0  0  0
M  END
